 # crystal structure from TiS3.XV
 CRYSTAL
 # Cell vectors in Angstroem:
 PRIMVEC
   4.9476001   0.0000000   0.0000000
   0.0000000  16.8935003   0.0000000
   0.0000000   0.0000000  25.0000005
 # Atom coordinates in Angstroem:
 PRIMCOORD
   72    1
  22          1.61731415          0.84497544          2.37049576
  22          1.61669498          4.22336386          2.36950726
  22          1.61726313          7.60175969          2.37047122
  22          1.61863748         10.98035211          2.37331614
  22          1.61870260         14.35983416          2.37333698
  22          4.09114476          2.53386292         -0.36618262
  22          4.09116413          5.91286908         -0.36624875
  22          4.09212929          9.29164507         -0.36398757
  22          4.09285373         12.67010591         -0.36254291
  22          4.09216300         16.04852453         -0.36393602
  16          3.04700853          0.84386342         23.09726859
  16          3.04581321          4.22342113         23.09741651
  16          3.04682984          7.60288142         23.09739062
  16          3.04781747         10.98181651         23.09946456
  16          3.04773578         14.35847383         23.09963254
  16          2.66223056          2.53471809          3.91182632
  16          2.66224066          5.91213212          3.91178343
  16          2.66342675          9.29008144          3.91330469
  16          2.66770003         12.67014860          3.91018149
  16          2.66342508         16.05018504          3.91337141
  16          4.09073978          0.84515266          1.45153569
  16          4.09065867          4.22339843          1.45046136
  16          4.09072645          7.60156841          1.45145106
  16          4.09239548         10.98045620          1.45425859
  16          4.09246159         14.35975144          1.45430336
  16          1.61684380          2.53386522          0.55689393
  16          1.61686882          5.91286121          0.55689666
  16          1.61769376          9.29190339          0.55871933
  16          1.61794574         12.67011896          0.56054728
  16          1.61774332         16.04833457          0.55875172
  16          0.18912542          0.84374478         23.09741139
  16          0.18784665          4.22328423         23.09465397
  16          0.18896248          7.60286187         23.09710277
  16          0.18976058         10.98091353         23.09892045
  16          0.18968961         14.35925484         23.09881277
  16          0.57132691          2.53465039          3.91096997
  16          0.57132809          5.91204169          3.91097818
  16          0.57255177          9.28937546          3.91329264
  16          0.57734676         12.67011613          3.91955356
  16          0.57255971         16.05080897          3.91329930
   6          1.83241809          3.51771425          7.72699446
   6          1.83253282          7.74126179          7.70958331
   6          1.83308733         11.96448940          7.67153843
   6          1.83281344         16.18771040          7.69712670
   6          4.30627246          3.51775956          7.72579297
   6          4.30635340          7.74118366          7.70809897
   6          4.30682921         11.96444672          7.66997501
   6          4.30663528         16.18785513          7.69566678
   6          1.83252177          0.70547171          7.70958325
   6          1.83245022          4.92904742          7.72700096
   6          1.83283702          9.15251747          7.69711689
   6          1.83307145         13.37574452          7.67154122
   6          4.30635494          0.70555517          7.70810283
   6          4.30626203          4.92898174          7.72578850
   6          4.30663721          9.15239111          7.69566177
   6          4.30682349         13.37576616          7.66998462
   6          0.59557028          1.40612713          7.71520864
   6          0.59543598          5.62946915          7.72452101
   6          0.59606874          9.85289430          7.68929695
   6          0.59624424         14.07624834          7.67530118
   6          3.06948652          1.40614341          7.71478016
   6          3.06939740          5.62946688          7.72411063
   6          3.06981029          9.85287102          7.68881097
   6          3.06986530         14.07626655          7.67476376
   6          0.59542572          2.81727996          7.72451990
   6          0.59557232          7.04062692          7.71521080
   6          0.59625309         11.26398965          7.67529861
   6          0.59604269         15.48732726          7.68930847
   6          3.06938361          2.81730114          7.72410426
   6          3.06947993          7.04060612          7.71478006
   6          3.06987567         11.26396810          7.67475757
   6          3.06980024         15.48736103          7.68881862
