 # crystal structure from TiS3.XV
 CRYSTAL
 # Cell vectors in Angstroem:
 PRIMVEC
   9.9810512   0.0020158   0.0000000
   0.0034656  17.2173253   0.0000000
   0.0000000   0.0000000  25.0000005
 # Atom coordinates in Angstroem:
 PRIMCOORD
  145    1
  22          1.60770397          0.90304446          2.37050005
  22          6.65310646          0.90221029          2.30375070
  22          1.62974769          4.34913654          2.25650856
  22          6.63833557          4.35246629          2.25466697
  22          1.64499744          7.79250566          2.23787513
  22          6.63983606          7.79302509          2.23674175
  22          1.64797832         11.22870832          2.24371889
  22          6.64179236         11.22989221          2.24136973
  22          1.63465654         14.67354474          2.26646872
  22          6.64614476         14.67242506          2.26308522
  22          4.13737577          2.61713231         24.55993582
  22          9.13253797          2.62091897         24.54080892
  22          4.14177066          6.06280307         24.52896147
  22          9.13215297          6.06671731         24.51702443
  22          4.14434304          9.51171684         24.52571378
  22          9.13484766          9.51260722         24.52073188
  22          4.14403808         12.96289118         24.53731796
  22          9.13525942         12.95780036         24.52484642
  22          4.14021894         16.40689588         24.56314715
  22          9.13731912         16.40154491         24.54628790
  16          3.09545023          0.90511124         23.03172997
  16          8.09000898          0.90148445         23.01294340
  16          3.09863222          4.33766170         23.01652532
  16          8.09310014          4.33949557         22.99590181
  16          3.10147744          7.79037167         22.99921848
  16          8.09336065          7.79425705         22.99006039
  16          3.09997357         11.24302139         23.00664011
  16          8.09252274         11.23929827         22.99600669
  16          3.10108543         14.69062250         23.02058303
  16          8.09596600         14.68697375         23.00497816
  16          2.74905669          2.65935189          3.82632619
  16          7.79183066          2.62779219          3.74375777
  16          2.68455379          6.07327775          3.76828833
  16          7.68453477          6.07695261          3.76941466
  16          2.69224827          9.50812240          3.76747285
  16          7.69081761          9.50789626          3.76392420
  16          2.69545153         12.94639550          3.76806278
  16          7.69419696         12.94111868          3.77053826
  16          2.75591457         16.36924221          3.84093377
  16          7.79947762         16.40144958          3.74981760
  16          4.13275766          0.90341476          1.36748482
  16          9.12781155          0.90460267          1.33651292
  16          4.13545157          4.35414926          1.33987600
  16          9.12791900          4.35871933          1.32065131
  16          4.14357957          7.78838168          1.32374734
  16          9.13170266          7.79050237          1.31809576
  16          4.14542821         11.23000754          1.32678627
  16          9.13453853         11.23254162          1.32224957
  16          4.14086752         14.67010938          1.34813620
  16          9.13368219         14.66547810          1.32961122
  16          1.64196115          2.60552887          0.49504650
  16          6.63165957          2.61879958          0.47503327
  16          1.63988749          6.06160271          0.45069782
  16          6.64233342          6.06343597          0.44898428
  16          1.64724612          9.51332206          0.44468365
  16          6.63824012          9.51417708          0.44164497
  16          1.64250922         12.96283698          0.45958029
  16          6.64569303         12.96347275          0.45538505
  16          1.64707747         16.41333369          0.50015176
  16          6.63593354         16.40408202          0.47885862
  16          0.19963250          0.89721131         23.01892963
  16          5.18620380          0.90052752         23.03652263
  16          0.20262699          4.33362668         23.01103592
  16          5.18842580          4.33366673         23.02370452
  16          0.20354476          7.78784470         22.99849281
  16          5.19207336          7.78486444         23.00553346
  16          0.20198224         11.23525833         22.99944108
  16          5.18993095         11.24088128         23.00938295
  16          0.20570043         14.68152262         23.01579130
  16          5.19132576         14.68636521         23.02771171
  16          0.46135576          2.63547327          3.76420212
  16          5.50966241          2.64969417          3.80630674
  16          0.59616402          6.08185429          3.76927784
  16          5.59596304          6.07629387          3.76954244
  16          0.60167823          9.50781559          3.77135448
  16          5.60005237          9.50921034          3.76881057
  16          0.60676185         12.93619695          3.78715489
  16          5.60535833         12.94449195          3.78245547
  16          0.46709427         16.39047940          3.77138382
  16          5.51667460         16.37651295          3.81454583
   6          1.86202656          3.56356713          7.53689719
   6          6.85803577          3.56452748          7.54086495
   6          1.86509406          7.86521209          7.58690965
   6          6.85632325          7.86625763          7.58886951
   6          1.86507980         12.16654596          7.57196104
   6          6.85729843         12.16802314          7.57301489
   6          1.86513626         16.47022994          7.52008602
   6          6.85997431         16.47245352          7.51904342
   6          4.36121079          3.56508436          7.53544568
   6          9.35072039          3.56296546          7.54145708
   6          4.36054515          7.86546791          7.58901365
   6          9.35073392          7.86663538          7.58809055
   6          4.36145493         12.16726456          7.56967800
   6          9.35193539         12.16867744          7.57114593
   6          4.36324565         16.46191976          7.50140817
   6          9.35280970         16.47397253          7.52518237
   6          1.85665012          0.68858523          7.50300984
   6          6.86070551          0.69007123          7.50757189
   6          1.86370746          4.99819974          7.56196993
   6          6.85649832          4.99869529          7.56446231
   6          1.86465197          9.30048023          7.58963679
   6          6.85554566          9.30098661          7.59156513
   6          1.86486854         13.60183184          7.55620703
   6          6.85816246         13.60261511          7.55624635
   6          4.36216837          0.68839864          7.47420609
   6          9.34992882          0.69174705          7.51913647
   6          4.36026960          4.99900919          7.56027282
   6          9.35042700          4.99823097          7.56192348
   6          4.36012265          9.30050825          7.59443631
   6          9.35085069          9.30176844          7.58973090
   6          4.36161631         13.60212658          7.55119866
   6          9.35167232         13.60368818          7.55425723
   6          0.61376037          1.40905615          7.51569836
   6          5.61667911          1.41342184          7.49517076
   6          0.61656418          5.71406485          7.57202454
   6          5.60859375          5.71467772          7.57318869
   6          0.61775609         10.01602146          7.58808233
   6          5.60808725         10.01678157          7.59120552
   6          0.61810996         14.31885870          7.54659267
   6          5.61021435         14.31723281          7.54370061
   6          3.10392277          1.41305675          7.48674771
   6          8.10481797          1.41028932          7.51859786
   6          3.11202452          5.71446917          7.57050984
   6          8.10376097          5.71550099          7.57270684
   6          3.11267218         10.01613386          7.58989601
   6          8.10322278         10.01755318          7.58908269
   6          3.11327616         14.31701996          7.54347086
   6          8.10491166         14.32029574          7.54546959
   6          0.61633682          2.84347362          7.52943947
   6          5.61050417          2.84933863          7.52430816
   6          0.61692423          7.14865474          7.58376227
   6          5.60841100          7.15012640          7.58603407
   6          0.61763896         11.45080986          7.57778937
   6          5.60874423         11.45215936          7.57919905
   6          0.61829774         15.75373090          7.53102909
   6          5.61352251         15.75111021          7.52112894
   6          3.11037981          2.85093781          7.51830451
   6          8.10429282          2.84523892          7.53162660
   6          3.11246937          7.14947572          7.58383063
   6          8.10350548          7.15035084          7.58462775
   6          3.11317747         11.45147678          7.57793317
   6          8.10440915         11.45266504          7.57853977
   6          3.11202587         15.75047820          7.52250665
   6          8.10620559         15.75572545          7.52969794
  12          4.13762086          0.90906498          5.08341875
