 # crystal structure from TiS3.XV
 CRYSTAL
 # Cell vectors in Angstroem:
 PRIMVEC
   9.9851050  -0.0021700   0.0000000
  -0.0037431  17.2190634   0.0000000
   0.0000000   0.0000000  25.0000005
 # Atom coordinates in Angstroem:
 PRIMCOORD
  145    1
  22          1.63879266          0.86483849          2.37050005
  22          6.62944089          0.86750813          2.12512705
  22          1.63276833          4.26444878          2.21950965
  22          6.62420901          4.30187034          2.19151642
  22          1.63482044          7.73996297          2.20797992
  22          6.62774611          7.74548911          2.21551519
  22          1.64133072         11.19944891          2.22478468
  22          6.63426809         11.19566436          2.23150501
  22          1.64100738         14.68293883          2.24699682
  22          6.63397244         14.64923699          2.22081595
  22          4.11841879          2.58173584         24.44913901
  22          9.14227800          2.57951181         24.44979074
  22          4.12694055          6.03547262         24.47873526
  22          9.13024861          6.03332619         24.47939369
  22          4.13339304          9.47447224         24.51665721
  22          9.12772831          9.47311468         24.51638102
  22          4.13240994         12.91115104         24.50624538
  22          9.13348219         12.91061740         24.50613169
  22          4.11998949         16.35706836         24.46482946
  22          9.14190001         16.35672648         24.46619558
  16          3.08302169          0.85349002         22.91621564
  16          8.09512851          0.85343777         22.93086291
  16          3.07671986          4.31962927         22.94392503
  16          8.09517198          4.31924204         22.92751272
  16          3.08994847          7.76573155         22.97133501
  16          8.08357012          7.76602061         22.97080296
  16          3.09248326         11.19223435         22.98553389
  16          8.08600106         11.18975886         22.98493788
  16          3.07969616         14.61907106         22.96704335
  16          8.09694397         14.61848572         22.95052340
  16          2.78898324          2.60727161          3.73473349
  16          7.85517852          2.57806263          3.66018253
  16          2.67113049          6.01837171          3.73137078
  16          7.66421439          6.00358564          3.72971502
  16          2.68958483          9.46188002          3.73844700
  16          7.68404121          9.46155487          3.73561385
  16          2.69733943         12.92111338          3.73550166
  16          7.69000372         12.93566137          3.73449653
  16          2.79448431         16.35150170          3.74781790
  16          7.85904188         16.38440214          3.67543761
  16          4.12812509          0.86536622          1.23978536
  16          9.13358946          0.86448417          1.24210447
  16          4.12818055          4.30326041          1.25154168
  16          9.12408836          4.30061129          1.25296534
  16          4.13125500          7.73955114          1.29900463
  16          9.12264338          7.73824138          1.29891847
  16          4.13743885         11.19778701          1.31426671
  16          9.12900606         11.19675178          1.31405897
  16          4.13613101         14.64375076          1.27748460
  16          9.13005538         14.64380807          1.27808035
  16          1.63650305          2.55140944          0.42980515
  16          6.62899501          2.59185290          0.37218179
  16          1.63507371          6.01868889          0.41833938
  16          6.62804007          6.01793538          0.40559798
  16          1.63761999          9.47660372          0.42826340
  16          6.62999914          9.47529240          0.42679511
  16          1.64011479         12.92759755          0.44332810
  16          6.63352049         12.92930268          0.43318315
  16          1.63842291         16.38833451          0.44564728
  16          6.63041795         16.34675955          0.38965175
  16          0.20385932          0.85529262         22.92474049
  16          5.17550246          0.85422843         22.93779304
  16          0.20351749          4.32037739         22.95395206
  16          5.16927896          4.31946249         22.93604196
  16          0.19159575          7.76475543         22.98036783
  16          5.18304907          7.76618857         22.97946100
  16          0.19411020         11.19204794         22.99265887
  16          5.18561241         11.19020525         22.99235559
  16          0.20555378         14.62024996         22.97361862
  16          5.17274756         14.61934406         22.95654482
  16          0.48354382          2.60565592          3.73389578
  16          5.39204109          2.57882508          3.65298552
  16          0.58088591          6.01743721          3.71414988
  16          5.57395702          6.00418987          3.71316386
  16          0.59807981          9.46280365          3.75054664
  16          5.58934360          9.46409634          3.74736747
  16          0.60589848         12.92227432          3.75593140
  16          5.59894635         12.93916500          3.75424931
  16          0.48619003         16.35173546          3.74935462
  16          5.39729487         16.38659396          3.67576961
   6          1.85164700          3.58511725          7.34547051
   6          6.84349702          3.58881945          7.41166140
   6          1.85035934          7.89069335          7.26868708
   6          6.84139580          7.88701858          7.29569377
   6          1.84905173         12.19303082          7.27829590
   6          6.84097638         12.19024661          7.30334682
   6          1.84808301         16.49873861          7.36420974
   6          6.84048961         16.48280980          7.43023925
   6          4.34264588          3.58828772          7.37875044
   6          9.34445755          3.58509703          7.37673923
   6          4.34742960          7.88725193          7.27793996
   6          9.33753918          7.88787732          7.27629760
   6          4.34197509         12.19329656          7.28998359
   6          9.34023209         12.18945902          7.28586420
   6          4.34084065         16.49284461          7.41153196
   6          9.33987679         16.49388394          7.40432358
   6          1.84944407          0.71356740          7.37318672
   6          6.84923972          0.70839642          7.44224436
   6          1.85114137          5.01922485          7.32127259
   6          6.84345768          5.02303749          7.35919452
   6          1.84702368          9.32457863          7.25487644
   6          6.84332555          9.32027153          7.29091935
   6          1.84853962         13.62621087          7.30515277
   6          6.84121243         13.62515522          7.33629831
   6          4.33963602          0.71045298          7.41946689
   6          9.34699721          0.71147477          7.41639869
   6          4.34570006          5.02189849          7.34006489
   6          9.34085012          5.01979770          7.33818750
   6          4.34482824          9.32139575          7.26741136
   6          9.33865052          9.32085221          7.26434702
   6          4.34285896         13.62510553          7.32163066
   6          9.33894530         13.62451591          7.31739919
   6          0.60550277          1.43257789          7.38640261
   6          5.58702428          1.43430809          7.42939422
   6          0.60255019          5.73815749          7.30873731
   6          5.59325790          5.73803099          7.33419580
   6          0.60119382         10.04217502          7.26099892
   6          5.59452232         10.04041639          7.28357043
   6          0.60057613         14.34422000          7.32381201
   6          5.59063506         14.33956905          7.36104913
   6          3.09503038          1.43146880          7.39063402
   6          8.10286760          1.43404085          7.43221584
   6          3.09802940          5.73614374          7.31019722
   6          8.09167735          5.73902492          7.33275224
   6          3.09605630         10.04163381          7.26260001
   6          8.09160319         10.03934280          7.27828991
   6          3.09494092         14.34229471          7.32740868
   6          8.09021885         14.34015072          7.35703074
   6          0.60568580          2.86608882          7.36643689
   6          5.59255407          2.87455787          7.41363280
   6          0.60206381          7.17223905          7.28384478
   6          5.59431402          7.17144150          7.30188634
   6          0.60299793         11.47473878          7.27327487
   6          5.59175928         11.47493328          7.29225237
   6          0.60044632         15.77896682          7.35963577
   6          5.59004505         15.77280803          7.41010443
   6          3.09695988          2.86788027          7.37220823
   6          8.09590533          2.87100223          7.41658128
   6          3.09880590          7.17097957          7.28401468
   6          8.08991638          7.17085537          7.29898422
   6          3.09573937         11.47468338          7.27543769
   6          8.09041897         11.47341432          7.28715265
   6          3.09492266         15.77656026          7.36492352
   6          8.09229952         15.77383910          7.40297835
  12          6.61376945          0.88701048          5.14565260
