 # crystal structure from TiS3.XV
 CRYSTAL
 # Cell vectors in Angstroem:
 PRIMVEC
   4.9967853  -0.0000007   0.0000000
  -0.0000025  17.2106796   0.0000000
   0.0000000   0.0000000  25.0000005
 # Atom coordinates in Angstroem:
 PRIMCOORD
   72    1
  22          1.63557708          0.86118817          2.37050005
  22          1.63489289          4.30250763          2.35718841
  22          1.63532960          7.74419595          2.35923554
  22          1.63645588         11.18651160          2.36190725
  22          1.63650829         14.62963901          2.36144045
  22          4.13221832          2.58079716         -0.35249956
  22          4.13221263          6.02377462         -0.35398649
  22          4.13314726          9.46606875         -0.35180095
  22          4.13339607         12.90807574         -0.35076928
  22          4.13323877         16.35047625         -0.35057249
  16          3.09001300          0.85963974         23.12079377
  16          3.08902261          4.30232945         23.12034428
  16          3.08992136          7.74577612         23.12009400
  16          3.09042534         11.18751600         23.12190373
  16          3.09039325         14.62897381         23.12252248
  16          2.67958376          2.58493079          3.89128090
  16          2.67929986          6.02293935          3.88762984
  16          2.68071126          9.46395448          3.88941660
  16          2.68543763         12.90801327          3.88609978
  16          2.68104278         16.35008827          3.89304600
  16          4.13283456          0.86101678          1.44859051
  16          4.13216213          4.30262191          1.44413945
  16          4.13264276          7.74424883          1.44528300
  16          4.13400084         11.18657719          1.44738216
  16          4.13403761         14.62948280          1.44753669
  16          1.63430184          2.57883765          0.56649923
  16          1.63405670          6.02403454          0.56306421
  16          1.63526870          9.46638814          0.56568904
  16          1.63534220         12.90800896          0.56722821
  16          1.63540574         16.35197160          0.56882107
  16          0.18173969          0.85946505         23.12297386
  16          0.18067637          4.30206959         23.12063121
  16          0.18158250          7.74565315         23.12188870
  16          0.18218274         11.18758357         23.12362269
  16          0.18213450         14.62877652         23.12415880
  16          0.58917490          2.58485079          3.88962608
  16          0.58949037          6.02248122          3.88632963
  16          0.59088362          9.46371494          3.88919902
  16          0.59573144         12.90797068          3.89531326
  16          0.59065110         16.35006441          3.89237776
   6          1.85092286          3.58525832          7.72561605
   6          1.85095850          7.88809668          7.70840992
   6          1.85092491         12.19062353          7.67466551
   6          1.85092172         16.49319943          7.69641458
   6          4.34930945          3.58528732          7.72465349
   6          4.34932925          7.88807827          7.70716131
   6          4.34930303         12.19064105          7.67329796
   6          4.34930671         16.49324384          7.69523108
   6          1.85094213          0.71722424          7.70843727
   6          1.85092772          5.02006812          7.72560332
   6          1.85093491          9.32280354          7.69637672
   6          1.85092117         13.62537391          7.67467266
   6          4.34932130          0.71724522          7.70718578
   6          4.34931189          5.02004770          7.72463777
   6          4.34931388          9.32275877          7.69519699
   6          4.34929875         13.62535805          7.67330130
   6          0.60173342          1.43386630          7.71405498
   6          0.60171802          5.73668250          7.72318923
   6          0.60173734         10.03931213          7.68938876
   6          0.60173231         14.34192312          7.67765175
   6          3.10015264          1.43387121          7.71374332
   6          3.10017150          5.73667176          7.72286496
   6          3.10015507         10.03930441          7.68906089
   6          3.10011830         14.34193094          7.67724926
   6          0.60171673          2.86866243          7.72321221
   6          0.60174253          7.17145994          7.71402918
   6          0.60173952         11.47408427          7.67763616
   6          0.60172917         15.77668232          7.68942567
   6          3.10016681          2.86866090          7.72289043
   6          3.10016768          7.17145055          7.71372082
   6          3.10012017         11.47407607          7.67723529
   6          3.10014992         15.77669490          7.68909496
