 # crystal structure from TiS3.XV
 CRYSTAL
 # Cell vectors in Angstroem:
 PRIMVEC
   9.9871893  -0.0029698   0.0000000
  -0.0051204  17.2296778   0.0000000
   0.0000000   0.0000000  25.0000005
 # Atom coordinates in Angstroem:
 PRIMCOORD
  145    1
  22          1.64059735          0.89878319          2.37050005
  22          6.63368790          0.91583776          2.14514403
  22          1.63818661          4.27524630          2.22733962
  22          6.62844065          4.31325948          2.18910455
  22          1.63047254          7.73989402          2.19770703
  22          6.62545967          7.73796215          2.19648467
  22          1.63203194         11.19428426          2.23315432
  22          6.63076220         11.20192251          2.23748528
  22          1.63336809         14.65607831          2.21761792
  22          6.63531814         14.66860535          2.21391665
  22          4.11303122          2.58244236         24.46533122
  22          9.14999383          2.58265367         24.45561519
  22          4.12084366          6.04532073         24.46495841
  22          9.13453237          6.04931201         24.45090168
  22          4.12727858          9.48000636         24.52380566
  22          9.12057057          9.47940976         24.52287548
  22          4.12816742         12.92516215         24.53734398
  22          9.12107088         12.92584702         24.53852730
  22          4.11584332         16.36340952         24.48837299
  22          9.13897726         16.35995652         24.47940275
  16          3.07560168          0.84592840         22.94499184
  16          8.09779592          0.85199807         22.95322723
  16          3.06818683          4.31830092         22.94682710
  16          8.09951739          4.31507720         22.92863271
  16          3.08389652          7.78363479         22.96699033
  16          8.08066931          7.78524653         22.96127031
  16          3.08832620         11.20933439         23.00421978
  16          8.07635704         11.20919947         23.00766570
  16          3.07847554         14.62354082         22.99353148
  16          8.08681516         14.62296350         22.97834408
  16          2.78873441          2.61630219          3.74202849
  16          7.98382477          2.64195394          3.51237056
  16          2.66365131          6.02915722          3.73617253
  16          7.66219709          6.02489722          3.72995588
  16          2.67855188          9.46214287          3.73496412
  16          7.67396385          9.46602744          3.73372459
  16          2.68253363         12.92304746          3.73838616
  16          7.67934707         12.97161515          3.74998758
  16          2.67616217         16.34662680          3.79958829
  16          7.67483008         16.49528352          3.77486909
  16          4.12295144          0.85705532          1.26273156
  16          9.14714476          0.85408933          1.25656544
  16          4.12151100          4.32288081          1.24436592
  16          9.14337503          4.32773290          1.22979763
  16          4.12965673          7.73758746          1.29338025
  16          9.11893799          7.73647328          1.28894409
  16          4.13396779         11.19912625          1.32509966
  16          9.11902582         11.19810083          1.32410160
  16          4.13370561         14.66777920          1.31325883
  16          9.12045720         14.67003555          1.31334851
  16          1.63755007          2.55706110          0.43196029
  16          6.63188145          2.60673813          0.36174820
  16          1.63390211          6.02697234          0.41193728
  16          6.62953247          6.03838537          0.39766886
  16          1.63028272          9.48621272          0.42912052
  16          6.62450725          9.49036904          0.43182912
  16          1.63179181         12.91925616          0.44455268
  16          6.62513098         12.93867386          0.44994571
  16          1.63532282         16.39343484          0.46599934
  16          6.63277392         16.36594039          0.41641785
  16          0.20115170          0.84511594         22.93607302
  16          5.16451645          0.85242458         22.96027147
  16          0.20230915          4.32181214         22.93391561
  16          5.15615778          4.31420688         22.93857061
  16          0.18545253          7.78977692         22.96619502
  16          5.17464501          7.78003550         22.97571881
  16          0.17498809         11.21105627         23.00683415
  16          5.17480567         11.20580545         23.00826306
  16          0.19130278         14.62042767         22.99433646
  16          5.16873770         14.62410564         22.98728902
  16          0.49847085          2.62241370          3.74479556
  16          5.31238162          2.60146821          3.54817749
  16          0.57676141          6.02469400          3.70663253
  16          5.57376711          6.00822480          3.70550068
  16          0.59118089          9.45674543          3.74441983
  16          5.58670451          9.45669105          3.74064261
  16          0.59568511         12.91987621          3.75313463
  16          5.59320486         12.94640990          3.75730298
  16          0.58267125         16.34114474          3.78655896
  16          5.57182643         16.42457581          3.71618500
   6          1.84203123          3.59503383          7.41383849
   6          6.83598230          3.59513378          7.43143570
   6          1.83887798          7.90121115          7.28367617
   6          6.83198993          7.90123072          7.33374695
   6          1.83733843         12.20575557          7.23358150
   6          6.83315076         12.20032456          7.25880028
   6          1.83589960         16.51004396          7.36452599
   6          6.83168212         16.49292410          7.42503580
   6          4.33053366          3.59627980          7.41724593
   6          9.33867456          3.59422158          7.40276343
   6          4.33302995          7.89961423          7.30707641
   6          9.33207999          7.89902413          7.29829363
   6          4.33328345         12.20035535          7.24502047
   6          9.32907765         12.19923289          7.24000690
   6          4.32702049         16.50296689          7.39121312
   6          9.33370317         16.50288841          7.37779336
   6          1.84206757          0.71801799          7.41139616
   6          6.83811807          0.70218293          7.47386518
   6          1.83954301          5.03396418          7.37130759
   6          6.83558884          5.03258252          7.38043859
   6          1.83785684          9.33807220          7.25781638
   6          6.83234796          9.33813250          7.30090797
   6          1.83734814         13.64140066          7.25100999
   6          6.83142242         13.63598794          7.31945561
   6          4.32776295          0.70914468          7.43324297
   6          9.34290365          0.70962293          7.40875511
   6          4.33484520          5.03124370          7.38035205
   6          9.33382269          5.02871794          7.36827259
   6          4.33267069          9.33681237          7.27415815
   6          9.33120901          9.33473462          7.26996874
   6          4.32879542         13.63540391          7.28451216
   6          9.33243021         13.63395403          7.27524846
   6          0.59657020          1.43569237          7.41824564
   6          5.57695524          1.42944312          7.47859275
   6          0.59345398          5.74928412          7.35061738
   6          5.58365914          5.74636834          7.37085971
   6          0.59111272         10.05348223          7.24913557
   6          5.58110041         10.05251742          7.26876262
   6          0.59128579         14.35481812          7.28090213
   6          5.57817066         14.34991779          7.34286787
   6          3.08760261          1.43535761          7.42995879
   6          8.09506540          1.42967188          7.45423508
   6          3.08700800          5.74695563          7.35195597
   6          8.08487936          5.74604865          7.36133031
   6          3.08439990         10.05143794          7.25027561
   6          8.08333953         10.05157480          7.26594243
   6          3.08288206         14.35487326          7.28553040
   6          8.08337160         14.34734756          7.33006419
   6          0.59625833          2.87465916          7.41862027
   6          5.58074462          2.87692413          7.45535389
   6          0.59305223          7.18506167          7.30616865
   6          5.58436863          7.18270500          7.34015478
   6          0.58911897         11.48952896          7.23485960
   6          5.58317876         11.48777883          7.24396669
   6          0.59379797         15.79005226          7.33811539
   6          5.57878497         15.78557619          7.39591895
   6          3.08679519          2.87497992          7.43306880
   6          8.09059295          2.87670396          7.43957827
   6          3.08598265          7.18361790          7.31067391
   6          8.08292372          7.18181450          7.33049081
   6          3.08465158         11.48741947          7.23567164
   6          8.08262976         11.48651905          7.24084582
   6          3.08022128         15.78972430          7.34514979
   6          8.08507108         15.78384939          7.38192603
  12          6.71578617          1.83481270          5.40137020
